[Format]      =  4.0
[Frequency]   =  0
[Precision]   =  1e-008
[MinAngle]    =  30
[Depth]       =  1
[LengthUnits] =  millimeters
[ProblemType] =  planar
[Coordinates] =  cartesian
[ACSolver]    =  1
[Comment]     =  "Add comments here."
[PointProps]   = 0
[BdryProps]   = 0
[BlockProps]  = 3
  <BeginBlock>
    <BlockName> = "Air"
    <Mu_x> = 1
    <Mu_y> = 1
    <H_c> = 0
    <H_cAngle> = 0
    <J_re> = 0
    <J_im> = 0
    <Sigma> = 0
    <d_lam> = 0
    <Phi_h> = 0
    <Phi_hx> = 0
    <Phi_hy> = 0
    <LamType> = 0
    <LamFill> = 1
    <NStrands> = 0
    <WireD> = 0
    <BHPoints> = 0
  <EndBlock>
  <BeginBlock>
    <BlockName> = "E233"
    <Mu_x> = 1
    <Mu_y> = 1
    <H_c> = 0
    <H_cAngle> = 0
    <J_re> = 0
    <J_im> = 0
    <Sigma> = 22.214400000000001
    <d_lam> = 0.5
    <Phi_h> = 0
    <Phi_hx> = 0
    <Phi_hy> = 0
    <LamType> = 0
    <LamFill> = 0.94999999999999996
    <NStrands> = 0
    <WireD> = 0
    <BHPoints> = 4
      0	0
      0.081408999999999995	52.701720000000002
      0.14194999999999999	73.920119999999997
      0.40311999999999998	88.065719999999999
  <EndBlock>
  <BeginBlock>
    <BlockName> = "Copper"
    <Mu_x> = 1
    <Mu_y> = 1
    <H_c> = 0
    <H_cAngle> = 0
    <J_re> = 0
    <J_im> = 0
    <Sigma> = 58
    <d_lam> = 0
    <Phi_h> = 0
    <Phi_hx> = 0
    <Phi_hy> = 0
    <LamType> = 0
    <LamFill> = 1
    <NStrands> = 0
    <WireD> = 0
    <BHPoints> = 0
  <EndBlock>
[CircuitProps]  = 2
  <BeginCircuit>
    <CircuitName> = "Pos"
    <TotalAmps_re> = 450
    <TotalAmps_im> = 0
    <CircuitType> = 1
  <EndCircuit>
  <BeginCircuit>
    <CircuitName> = "Neg"
    <TotalAmps_re> = -450
    <TotalAmps_im> = 0
    <CircuitType> = 1
  <EndCircuit>
[NumPoints] = 146
60	45.600000000000001	0	0
60	94.400000000000006	0	0
500	0	0	0
-500	0	0	0
178.464102115153	18.019983999973999	0	0
180.500000500082	18.019983999973402	0	0
171.99999949999301	151.999984999985	0	0
172.00000050001501	18.019983999973402	0	0
-172.00000050001501	18.019983999973402	0	0
-172.000000500016	151.999984999985	0	0
-62.600000000000001	43	0	0
-98.400000000000006	43	0	0
-60.499999999997698	99.019985499989005	0	0
-104	99.019985499989104	0	0
-56.5	40.534360420007999	0	0
-56.5	95.019985499991293	0	0
101	94.400000000000006	0	0
101	45.600000000000001	0	0
98.400000000000105	43	0	0
62.600000000000001	43	0	0
500	500	0	0
-500	500	0	0
56.5	95.019985499991407	0	0
104	99.019985499989403	0	0
60.499999999997698	99.019985499989104	0	0
108	0.50000000001064704	0	0
107.999999999998	95.019985499991407	0	0
180.500000500082	-4.9993075166730402e-007	0	0
181.000000500082	17.519983999973402	0	0
181.000000500082	0.49999950006924399	0	0
156.999999499984	166.99998499999501	0	0
-180.500000500026	18.019983999973402	0	0
-178.464102115153	18.019983999973402	0	0
-181.000000500026	0.49999949995271498	0	0
-181.000000500026	17.519983999973402	0	0
-59.999999999999901	94.400000000000006	0	0
-59.999999999999901	45.600000000000001	0	0
-101	45.600000000000001	0	0
-101	94.400000000000006	0	0
-98.400000000000006	97	0	0
-62.600000000000001	97	0	0
-180.500000500026	-5.0004729246211397e-007	0	0
-107.999999999998	95.019985499991293	0	0
-107.999999999997	0.49999999998905698	0	0
62.600000000000001	97	0	0
98.400000000000105	97	0	0
177.96923045584737	17.591412571401932	0	0
-177.96923045584765	17.591412571401889	0	0
-6.5004999999988096	60.0000004999198	0	0
6.5005000000011899	60.0000004999198	0	0
89.499500000002897	146.000000499918	0	0
102.5005000000029	146.000000499918	0	0
146.500500500025	37.0000004999171	0	0
133.49950050002502	37.0000004999171	0	0
-6.5004999999976372	120.00000049992001	0	0
6.5005000000023623	120.00000049992001	0	0
-146.50050050002298	37.000000499922599	0	0
-133.499500500023	37.000000499922599	0	0
-102.500499999997	146.00000049992201	0	0
-89.499499999997397	146.00000049992201	0	0
-156.999999499984	166.99998499999501	0	0
-181.000000500026	-4.9926474582351332e-007	0	0
-107.999999999997	-1.088307222119056e-011	0	0
108	1.0608403044898296e-011	0	0
181.00000050008202	-4.9914838745612755e-007	0	0
60	-45.600000000000001	0	0
60	-94.400000000000006	0	0
178.464102115153	-18.019983999973999	0	0
180.500000500082	-18.019983999973402	0	0
171.99999949999301	-151.999984999985	0	0
172.00000050001501	-18.019983999973402	0	0
-172.00000050001501	-18.019983999973402	0	0
-172.000000500016	-151.999984999985	0	0
-62.600000000000001	-43	0	0
-98.400000000000006	-43	0	0
-60.499999999997698	-99.019985499989005	0	0
-104	-99.019985499989104	0	0
-56.5	-95.019985499991293	0	0
101	-94.400000000000006	0	0
101	-45.600000000000001	0	0
98.400000000000105	-43	0	0
62.600000000000001	-43	0	0
56.5	-95.019985499991407	0	0
104	-99.019985499989403	0	0
60.499999999997698	-99.019985499989104	0	0
108	-0.50000000001064704	0	0
107.999999999998	-95.019985499991407	0	0
181.000000500082	-17.519983999973402	0	0
181.000000500082	-0.49999950006924399	0	0
-180.500000500026	-18.019983999973402	0	0
-178.464102115153	-18.019983999973402	0	0
-181.000000500026	-0.49999949995271498	0	0
-181.000000500026	-17.519983999973402	0	0
-59.999999999999901	-94.400000000000006	0	0
-59.999999999999901	-45.600000000000001	0	0
-101	-45.600000000000001	0	0
-101	-94.400000000000006	0	0
-98.400000000000006	-97	0	0
-62.600000000000001	-97	0	0
-107.999999999998	-95.019985499991293	0	0
-107.999999999997	-0.49999999998905698	0	0
62.600000000000001	-97	0	0
98.400000000000105	-97	0	0
-156.999999499984	-166.99998499999501	0	0
156.999999499984	-166.99998499999501	0	0
177.96923045584737	-17.591412571401932	0	0
-177.96923045584765	-17.591412571401889	0	0
6.5005000000011899	-60.0000004999198	0	0
-6.5004999999988096	-60.0000004999198	0	0
102.5005000000029	-146.000000499918	0	0
89.499500000002897	-146.000000499918	0	0
133.49950050002502	-37.0000004999171	0	0
146.500500500025	-37.0000004999171	0	0
6.5005000000023623	-120.00000049992001	0	0
-6.5004999999976372	-120.00000049992001	0	0
-133.499500500023	-37.000000499922599	0	0
-146.50050050002298	-37.000000499922599	0	0
-89.499499999997397	-146.00000049992201	0	0
-102.500499999997	-146.00000049992201	0	0
-500	-500	0	0
500	-500	0	0
-50.120998746235685	16.583070005447741	0	0
56.5	40.534360420007999	0	0
-56.5	-40.534360420007999	0	0
56.5	-40.534360420007999	0	0
-50	0	0	0
50	0	0	0
-30.099999999999998	16.5	0	0
-30.209999999999994	16.400000000000006	0	0
30.209999999999994	16.400000000000006	0	0
30.099999999999998	16.5	0	0
-45.809999999999995	16.400000000000006	0	0
-50.01816235332322	16.400000000000006	0	0
50.120998746235685	16.583070005447741	0	0
45.809999999999995	16.400000000000006	0	0
50.01816235332322	16.400000000000006	0	0
-50.120998746235685	-16.583070005447741	0	0
-30.209999999999994	-16.400000000000006	0	0
-45.809999999999995	-16.400000000000006	0	0
-30.099999999999998	-16.5	0	0
30.209999999999994	-16.400000000000006	0	0
30.099999999999998	-16.5	0	0
-50.01816235332322	-16.400000000000006	0	0
50.120998746235685	-16.583070005447741	0	0
45.809999999999995	-16.400000000000006	0	0
50.01816235332322	-16.400000000000006	0	0
[NumSegments] = 81
0	1	-1	0	0	0
4	5	-1	0	0	0
6	7	-1	0	0	0
8	9	-1	0	0	0
10	11	-1	0	0	0
12	13	-1	0	0	0
14	15	-1	0	0	0
16	17	-1	0	0	0
18	19	-1	0	0	0
20	2	-1	0	0	0
21	20	-1	0	0	0
22	122	-1	0	0	0
23	24	-1	0	0	0
25	26	-1	0	0	0
3	21	-1	0	0	0
28	29	-1	0	0	0
31	32	-1	0	0	0
33	34	-1	0	0	0
35	36	-1	0	0	0
37	38	-1	0	0	0
39	40	-1	0	0	0
41	61	-1	0	0	0
42	43	-1	0	0	0
44	45	-1	0	0	0
60	30	-1	0	0	0
33	61	-1	0	0	0
43	62	-1	0	0	0
25	63	-1	0	0	0
64	27	-1	0	0	0
29	64	-1	0	0	0
65	66	-1	0	0	0
67	68	-1	0	0	0
69	70	-1	0	0	0
71	72	-1	0	0	0
73	74	-1	0	0	0
75	76	-1	0	0	0
78	79	-1	0	0	0
80	81	-1	0	0	0
83	84	-1	0	0	0
85	86	-1	0	0	0
87	88	-1	0	0	0
89	90	-1	0	0	0
91	92	-1	0	0	0
93	94	-1	0	0	0
95	96	-1	0	0	0
97	98	-1	0	0	0
99	100	-1	0	0	0
101	102	-1	0	0	0
103	104	-1	0	0	0
91	61	-1	0	0	0
100	62	-1	0	0	0
85	63	-1	0	0	0
88	64	-1	0	0	0
119	120	-1	0	0	0
3	119	-1	0	0	0
120	2	-1	0	0	0
14	121	-1	0	0	0
123	77	-1	0	0	0
82	124	-1	0	0	0
128	131	-1	0	0	0
128	127	-1	0	0	0
129	130	-1	0	0	0
127	130	-1	0	0	0
125	126	-1	0	0	0
132	121	-1	0	0	0
131	132	-1	0	0	0
122	133	-1	0	0	0
129	134	-1	0	0	0
135	133	-1	0	0	0
134	135	-1	0	0	0
123	136	-1	0	0	0
137	138	-1	0	0	0
137	139	-1	0	0	0
140	141	-1	0	0	0
139	141	-1	0	0	0
142	136	-1	0	0	0
138	142	-1	0	0	0
124	143	-1	0	0	0
140	144	-1	0	0	0
145	143	-1	0	0	0
144	145	-1	0	0	0
[NumArcSegments] = 64
44	1	90	5	0	0	0
28	5	90	5	0	0	0
7	46	171.786789298261	5	0	0	0
6	30	90.000000000003908	5	0	0	0
4	46	81.786789298269014	5	0	0	0
47	8	171.786789298261	5	0	0	0
37	11	90	5	0	0	0
13	42	90	5	0	0	0
10	36	90	5	0	0	0
15	12	90	5	0	0	0
0	19	90	5	0	0	0
18	17	90	5	0	0	0
24	22	90	5	0	0	0
26	23	90	5	0	0	0
48	49	180	5	0	0	0
49	48	180	5	0	0	0
50	51	180	5	0	0	0
51	50	180	5	0	0	0
52	53	180	5	0	0	0
54	55	180	5	0	0	0
55	54	180	5	0	0	0
47	32	81.786789298268644	5	0	0	0
56	57	180	5	0	0	0
57	56	180	5	0	0	0
53	52	180	5	0	0	0
58	59	180	5	0	0	0
59	58	180	5	0	0	0
31	34	90	5	0	0	0
35	40	90	5	0	0	0
39	38	90	5	0	0	0
16	45	90	5	0	0	0
60	9	90.000000000003908	5	0	0	0
66	101	90	5	0	0	0
68	87	90	5	0	0	0
105	70	171.786789298261	5	0	0	0
104	69	90.000000000003908	5	0	0	0
105	67	81.786789298269014	5	0	0	0
71	106	171.786789298261	5	0	0	0
74	95	90	5	0	0	0
99	76	90	5	0	0	0
94	73	90	5	0	0	0
75	77	90	5	0	0	0
81	65	90	5	0	0	0
79	80	90	5	0	0	0
82	84	90	5	0	0	0
83	86	90	5	0	0	0
107	108	180	5	0	0	0
108	107	180	5	0	0	0
109	110	180	5	0	0	0
110	109	180	5	0	0	0
111	112	180	5	0	0	0
113	114	180	5	0	0	0
114	113	180	5	0	0	0
90	106	81.786789298268644	5	0	0	0
115	116	180	5	0	0	0
116	115	180	5	0	0	0
112	111	180	5	0	0	0
117	118	180	5	0	0	0
118	117	180	5	0	0	0
92	89	90	5	0	0	0
98	93	90	5	0	0	0
96	97	90	5	0	0	0
102	78	90	5	0	0	0
72	103	90.000000000003908	5	0	0	0
[NumHoles] = 0
[NumBlockLabels] = 19
79	72	3	-1	2	0	0	12	0
-80	73	3	-1	1	0	0	12	0
-263	358	1	-1	0	0	0	1	0
-96	143.90000000000001	1	-1	0	0	0	1	0
-140.69999999999999	35.600000000000001	1	-1	0	0	0	1	0
-0.29999999999999999	59.200000000000003	1	-1	0	0	0	1	0
-0.90000000000000002	120.59999999999999	1	-1	0	0	0	1	0
96.200000000000003	146.5	1	-1	0	0	0	1	0
139.80000000000001	35.899999999999999	1	-1	0	0	0	1	0
79	-72	3	-1	2	0	0	12	0
-80	-73	3	-1	1	0	0	12	0
-96	-143.90000000000001	1	-1	0	-0	0	1	0
-140.69999999999999	-35.600000000000001	1	-1	0	-0	0	1	0
-0.30000000000000004	-59.200000000000003	1	-1	0	-0	0	1	0
-0.89999999999999991	-120.59999999999999	1	-1	0	-0	0	1	0
96.200000000000003	-146.5	1	-1	0	-0	0	1	0
139.80000000000001	-35.899999999999999	1	-1	0	-0	0	1	0
-45.600000000000001	137.09999999999999	2	5	0	0	0	1	0
-85	20	1	2	0	0	0	1	0
